!- Windows Line endings 

Version,
    24.2;                     !- Version Identifier

SimulationControl,
    Yes,                      !- Do Zone Sizing Calculation
    Yes,                      !- Do System Sizing Calculation
    Yes,                      !- Do Plant Sizing Calculation
    No,                       !- Run Simulation for Sizing Periods
    Yes,                      !- Run Simulation for Weather File Run Periods
    ,                         !- Do HVAC Sizing Simulation for Sizing Periods
    ;                         !- Maximum Number of HVAC Sizing Simulation Passes

Building,
    unnamed,                  !- Name
    0,                        !- North Axis
    City,                     !- Terrain
    ,                         !- Loads Convergence Tolerance Value
    ,                         !- Temperature Convergence Tolerance Value
    FullExteriorWithReflections,    !- Solar Distribution
    ,                         !- Maximum Number of Warmup Days
    ;                         !- Minimum Number of Warmup Days

ShadowCalculation,
    PolygonClipping,          !- Shading Calculation Method
    Periodic,                 !- Shading Calculation Update Frequency Method
    30,                       !- Shading Calculation Update Frequency
    15000,                    !- Maximum Figures in Shadow Overlap Calculations
    SutherlandHodgman,        !- Polygon Clipping Algorithm
    512,                      !- Pixel Counting Resolution
    SimpleSkyDiffuseModeling,    !- Sky Diffuse Modeling Algorithm
    No,                       !- Output External Shading Calculation Results
    No,                       !- Disable SelfShading Within Shading Zone Groups
    No;                       !- Disable SelfShading From Shading Zone Groups to Other Zones

Timestep,
    4;                        !- Number of Timesteps per Hour

Site:Location,
    Site 1,                   !- Name
    0,                        !- Latitude
    0,                        !- Longitude
    0,                        !- Time Zone
    0;                        !- Elevation

SizingPeriod:DesignDay,
    Suzhou Ann Clg .4% Condns DP=>MDB,    !- Name
    8,                        !- Month
    21,                       !- Day of Month
    SummerDesignDay,          !- Day Type
    34.8,                     !- Maximum DryBulb Temperature
    6.7,                      !- Daily DryBulb Temperature Range
    DefaultMultipliers,       !- DryBulb Temperature Range Modifier Type
    ,                         !- DryBulb Temperature Range Modifier Day Schedule Name
    Dewpoint,                 !- Humidity Condition Type
    27.6,                     !- Wetbulb or DewPoint at Maximum DryBulb
    ,                         !- Humidity Condition Day Schedule Name
    ,                         !- Humidity Ratio at Maximum DryBulb
    ,                         !- Enthalpy at Maximum DryBulb
    ,                         !- Daily WetBulb Temperature Range
    101097,                   !- Barometric Pressure
    3.35,                     !- Wind Speed
    0,                        !- Wind Direction
    No,                       !- Rain Indicator
    No,                       !- Snow Indicator
    No,                       !- Daylight Saving Time Indicator
    ASHRAEClearSky,           !- Solar Model Indicator
    ,                         !- Beam Solar Day Schedule Name
    ,                         !- Diffuse Solar Day Schedule Name
    ,                         !- ASHRAE Clear Sky Optical Depth for Beam Irradiance taub
    ,                         !- ASHRAE Clear Sky Optical Depth for Diffuse Irradiance taud
    1,                        !- Sky Clearness
    ,                         !- Maximum Number Warmup Days
    FullResetAtBeginEnvironment;    !- Begin Environment Reset Mode

SizingPeriod:DesignDay,
    Suzhou Ann Htg 99.6% Condns DB,    !- Name
    1,                        !- Month
    21,                       !- Day of Month
    WinterDesignDay,          !- Day Type
    -4,                       !- Maximum DryBulb Temperature
    0,                        !- Daily DryBulb Temperature Range
    DefaultMultipliers,       !- DryBulb Temperature Range Modifier Type
    ,                         !- DryBulb Temperature Range Modifier Day Schedule Name
    Wetbulb,                  !- Humidity Condition Type
    -4,                       !- Wetbulb or DewPoint at Maximum DryBulb
    ,                         !- Humidity Condition Day Schedule Name
    ,                         !- Humidity Ratio at Maximum DryBulb
    ,                         !- Enthalpy at Maximum DryBulb
    ,                         !- Daily WetBulb Temperature Range
    101097,                   !- Barometric Pressure
    6.71,                     !- Wind Speed
    0,                        !- Wind Direction
    No,                       !- Rain Indicator
    No,                       !- Snow Indicator
    No,                       !- Daylight Saving Time Indicator
    ASHRAEClearSky,           !- Solar Model Indicator
    ,                         !- Beam Solar Day Schedule Name
    ,                         !- Diffuse Solar Day Schedule Name
    ,                         !- ASHRAE Clear Sky Optical Depth for Beam Irradiance taub
    ,                         !- ASHRAE Clear Sky Optical Depth for Diffuse Irradiance taud
    0,                        !- Sky Clearness
    ,                         !- Maximum Number Warmup Days
    FullResetAtBeginEnvironment;    !- Begin Environment Reset Mode

RunPeriod,
    Run Period 1,             !- Name
    1,                        !- Begin Month
    1,                        !- Begin Day of Month
    2006,                     !- Begin Year
    12,                       !- End Month
    31,                       !- End Day of Month
    2006,                     !- End Year
    Sunday,                   !- Day of Week for Start Day
    No,                       !- Use Weather File Holidays and Special Days
    No,                       !- Use Weather File Daylight Saving Period
    No,                       !- Apply Weekend Holiday Rule
    Yes,                      !- Use Weather File Rain Indicators
    Yes;                      !- Use Weather File Snow Indicators

Site:WaterMainsTemperature,
    CorrelationFromWeatherFile;    !- Calculation Method

ScheduleTypeLimits,
    Fractional,               !- Name
    0,                        !- Lower Limit Value
    1,                        !- Upper Limit Value
    Continuous;               !- Numeric Type

ScheduleTypeLimits,
    Activity Level,           !- Name
    0,                        !- Lower Limit Value
    ,                         !- Upper Limit Value
    Continuous,               !- Numeric Type
    activitylevel;            !- Unit Type

ScheduleTypeLimits,
    Room_4 Thermostat Schedule Type Limits,    !- Name
    0,                        !- Lower Limit Value
    4,                        !- Upper Limit Value
    DISCRETE;                 !- Numeric Type

ScheduleTypeLimits,
    Temperature,              !- Name
    -273.15,                  !- Lower Limit Value
    ,                         !- Upper Limit Value
    Continuous,               !- Numeric Type
    temperature;              !- Unit Type

ScheduleTypeLimits,
    Room_5 Thermostat Schedule Type Limits,    !- Name
    0,                        !- Lower Limit Value
    4,                        !- Upper Limit Value
    DISCRETE;                 !- Numeric Type

ScheduleTypeLimits,
    Room_6 Thermostat Schedule Type Limits,    !- Name
    0,                        !- Lower Limit Value
    4,                        !- Upper Limit Value
    DISCRETE;                 !- Numeric Type

ScheduleTypeLimits,
    Room_1 Thermostat Schedule Type Limits,    !- Name
    0,                        !- Lower Limit Value
    4,                        !- Upper Limit Value
    DISCRETE;                 !- Numeric Type

ScheduleTypeLimits,
    Room_3 Thermostat Schedule Type Limits,    !- Name
    0,                        !- Lower Limit Value
    4,                        !- Upper Limit Value
    DISCRETE;                 !- Numeric Type

ScheduleTypeLimits,
    Room_2 Thermostat Schedule Type Limits,    !- Name
    0,                        !- Lower Limit Value
    4,                        !- Upper Limit Value
    DISCRETE;                 !- Numeric Type

ScheduleTypeLimits,
    OnOff,                    !- Name
    0,                        !- Lower Limit Value
    1,                        !- Upper Limit Value
    Discrete,                 !- Numeric Type
    availability;             !- Unit Type

ScheduleTypeLimits,
    {4d1f68ba-6070-41bc-9bbb-e0db12d1cfb5},    !- Name
    0,                        !- Lower Limit Value
    1,                        !- Upper Limit Value
    Continuous,               !- Numeric Type
    dimensionless;            !- Unit Type

ScheduleTypeLimits,
    {9947ab63-6a9d-4669-a4f4-7376d144ea5d},    !- Name
    0,                        !- Lower Limit Value
    1,                        !- Upper Limit Value
    Discrete,                 !- Numeric Type
    availability;             !- Unit Type

SCHEDULETYPELIMITS,
    Any Number,               !- Name
    ,                         !- Lower Limit Value
    ,                         !- Upper Limit Value
    ,                         !- Numeric Type
    Dimensionless;            !- Unit Type

SCHEDULETYPELIMITS,
    Fraction,                 !- Name
    0,                        !- Lower Limit Value
    1,                        !- Upper Limit Value
    CONTINUOUS,               !- Numeric Type
    Dimensionless;            !- Unit Type

SCHEDULETYPELIMITS,
    Control Type,             !- Name
    0,                        !- Lower Limit Value
    4,                        !- Upper Limit Value
    DISCRETE,                 !- Numeric Type
    Dimensionless;            !- Unit Type

SCHEDULETYPELIMITS,
    On/Off,                   !- Name
    0,                        !- Lower Limit Value
    1,                        !- Upper Limit Value
    DISCRETE,                 !- Numeric Type
    Dimensionless;            !- Unit Type

Schedule:Day:Interval,
    OfficeMedium LIGHT_SCH_Sun,    !- Name
    Fractional,               !- Schedule Type Limits Name
    No,                       !- Interpolate to Timestep
    06:00,                    !- Time 1
    0.05,                     !- Value Until Time 1
    18:00,                    !- Time 2
    0.04311628,               !- Value Until Time 2
    24:00,                    !- Time 3
    0.05;                     !- Value Until Time 3

Schedule:Day:Interval,
    OfficeMedium LIGHT_SCH_Workday,    !- Name
    Fractional,               !- Schedule Type Limits Name
    No,                       !- Interpolate to Timestep
    05:00,                    !- Time 1
    0.05,                     !- Value Until Time 1
    06:00,                    !- Time 2
    0.1,                      !- Value Until Time 2
    07:00,                    !- Time 3
    0.08623256,               !- Value Until Time 3
    08:00,                    !- Time 4
    0.25869768,               !- Value Until Time 4
    17:00,                    !- Time 5
    0.77609304,               !- Value Until Time 5
    18:00,                    !- Time 6
    0.4311628,                !- Value Until Time 6
    20:00,                    !- Time 7
    0.25869768,               !- Value Until Time 7
    22:00,                    !- Time 8
    0.17246512,               !- Value Until Time 8
    23:00,                    !- Time 9
    0.08623256,               !- Value Until Time 9
    24:00,                    !- Time 10
    0.04311628;               !- Value Until Time 10

Schedule:Day:Interval,
    OfficeMedium LIGHT_SCH_SDD,    !- Name
    Fractional,               !- Schedule Type Limits Name
    No,                       !- Interpolate to Timestep
    24:00,                    !- Time 1
    1;                        !- Value Until Time 1

Schedule:Day:Interval,
    OfficeMedium LIGHT_SCH_WDD,    !- Name
    Fractional,               !- Schedule Type Limits Name
    No,                       !- Interpolate to Timestep
    24:00,                    !- Time 1
    0;                        !- Value Until Time 1

Schedule:Day:Interval,
    OfficeMedium LIGHT_SCH_Holiday,    !- Name
    Fractional,               !- Schedule Type Limits Name
    No,                       !- Interpolate to Timestep
    06:00,                    !- Time 1
    0.05,                     !- Value Until Time 1
    08:00,                    !- Time 2
    0.08623256,               !- Value Until Time 2
    12:00,                    !- Time 3
    0.25869768,               !- Value Until Time 3
    17:00,                    !- Time 4
    0.12934884,               !- Value Until Time 4
    19:00,                    !- Time 5
    0.04311628,               !- Value Until Time 5
    24:00,                    !- Time 6
    0.05;                     !- Value Until Time 6

Schedule:Day:Interval,
    OfficeMedium OCC_SCH_Default,    !- Name
    Fractional,               !- Schedule Type Limits Name
    No,                       !- Interpolate to Timestep
    06:00,                    !- Time 1
    0,                        !- Value Until Time 1
    18:00,                    !- Time 2
    0.05,                     !- Value Until Time 2
    24:00,                    !- Time 3
    0;                        !- Value Until Time 3

Schedule:Day:Interval,
    OfficeMedium OCC_SCH_Workday,    !- Name
    Fractional,               !- Schedule Type Limits Name
    No,                       !- Interpolate to Timestep
    06:00,                    !- Time 1
    0,                        !- Value Until Time 1
    07:00,                    !- Time 2
    0.1,                      !- Value Until Time 2
    08:00,                    !- Time 3
    0.2,                      !- Value Until Time 3
    12:00,                    !- Time 4
    0.95,                     !- Value Until Time 4
    13:00,                    !- Time 5
    0.5,                      !- Value Until Time 5
    17:00,                    !- Time 6
    0.95,                     !- Value Until Time 6
    18:00,                    !- Time 7
    0.3,                      !- Value Until Time 7
    22:00,                    !- Time 8
    0.1,                      !- Value Until Time 8
    24:00,                    !- Time 9
    0.05;                     !- Value Until Time 9

Schedule:Day:Interval,
    OfficeMedium OCC_SCH_Sat,    !- Name
    Fractional,               !- Schedule Type Limits Name
    No,                       !- Interpolate to Timestep
    06:00,                    !- Time 1
    0,                        !- Value Until Time 1
    08:00,                    !- Time 2
    0.1,                      !- Value Until Time 2
    12:00,                    !- Time 3
    0.3,                      !- Value Until Time 3
    17:00,                    !- Time 4
    0.1,                      !- Value Until Time 4
    19:00,                    !- Time 5
    0.05,                     !- Value Until Time 5
    24:00,                    !- Time 6
    0;                        !- Value Until Time 6

Schedule:Day:Interval,
    OfficeMedium OCC_SCH_SumDesign,    !- Name
    Fractional,               !- Schedule Type Limits Name
    No,                       !- Interpolate to Timestep
    06:00,                    !- Time 1
    0,                        !- Value Until Time 1
    22:00,                    !- Time 2
    1,                        !- Value Until Time 2
    24:00,                    !- Time 3
    0.05;                     !- Value Until Time 3

Schedule:Day:Interval,
    OfficeMedium OCC_SCH_WinDesign,    !- Name
    Fractional,               !- Schedule Type Limits Name
    No,                       !- Interpolate to Timestep
    24:00,                    !- Time 1
    0;                        !- Value Until Time 1

Schedule:Day:Interval,
    OfficeMedium OCC_SCH_Holiday,    !- Name
    Fractional,               !- Schedule Type Limits Name
    No,                       !- Interpolate to Timestep
    06:00,                    !- Time 1
    0,                        !- Value Until Time 1
    18:00,                    !- Time 2
    0.05,                     !- Value Until Time 2
    24:00,                    !- Time 3
    0;                        !- Value Until Time 3

Schedule:Day:Interval,
    Seated Adult Activity_Day Schedule,    !- Name
    Activity Level,           !- Schedule Type Limits Name
    No,                       !- Interpolate to Timestep
    24:00,                    !- Time 1
    120;                      !- Value Until Time 1

Schedule:Day:Interval,
    OfficeMedium EQUIP_SCH_Sun,    !- Name
    Fractional,               !- Schedule Type Limits Name
    No,                       !- Interpolate to Timestep
    06:00,                    !- Time 1
    0.2307553806,             !- Value Until Time 1
    18:00,                    !- Time 2
    0.288107175,              !- Value Until Time 2
    24:00,                    !- Time 3
    0.2307553806;             !- Value Until Time 3

Schedule:Day:Interval,
    OfficeMedium EQUIP_SCH_Workday,    !- Name
    Fractional,               !- Schedule Type Limits Name
    No,                       !- Interpolate to Timestep
    06:00,                    !- Time 1
    0.3076738408,             !- Value Until Time 1
    08:00,                    !- Time 2
    0.381234796,              !- Value Until Time 2
    12:00,                    !- Time 3
    0.857778291,              !- Value Until Time 3
    13:00,                    !- Time 4
    0.762469592,              !- Value Until Time 4
    17:00,                    !- Time 5
    0.857778291,              !- Value Until Time 5
    18:00,                    !- Time 6
    0.476543495,              !- Value Until Time 6
    24:00,                    !- Time 7
    0.381234796;              !- Value Until Time 7

Schedule:Day:Interval,
    OfficeMedium EQUIP_SCH_Sat,    !- Name
    Fractional,               !- Schedule Type Limits Name
    No,                       !- Interpolate to Timestep
    06:00,                    !- Time 1
    0.2307553806,             !- Value Until Time 1
    08:00,                    !- Time 2
    0.381234796,              !- Value Until Time 2
    12:00,                    !- Time 3
    0.476543495,              !- Value Until Time 3
    17:00,                    !- Time 4
    0.3335804465,             !- Value Until Time 4
    19:00,                    !- Time 5
    0.285926097,              !- Value Until Time 5
    24:00,                    !- Time 6
    0.2307553806;             !- Value Until Time 6

Schedule:Day:Interval,
    {8bdf5033-8bb6-49a6-8c63-1cf42e979cd2},    !- Name
    Fractional,               !- Schedule Type Limits Name
    No,                       !- Interpolate to Timestep
    24:00,                    !- Time 1
    1;                        !- Value Until Time 1

Schedule:Day:Interval,
    {cb566151-dfc8-4057-8b59-9311fdab7c33},    !- Name
    Fractional,               !- Schedule Type Limits Name
    No,                       !- Interpolate to Timestep
    24:00,                    !- Time 1
    0;                        !- Value Until Time 1

Schedule:Day:Interval,
    {f78fa74f-0576-43bd-a816-8bf4ce6cd31b},    !- Name
    Fractional,               !- Schedule Type Limits Name
    No,                       !- Interpolate to Timestep
    06:00,                    !- Time 1
    0.2307553806,             !- Value Until Time 1
    08:00,                    !- Time 2
    0.381234796,              !- Value Until Time 2
    12:00,                    !- Time 3
    0.476543495,              !- Value Until Time 3
    17:00,                    !- Time 4
    0.3335804465,             !- Value Until Time 4
    19:00,                    !- Time 5
    0.285926097,              !- Value Until Time 5
    24:00,                    !- Time 6
    0.2307553806;             !- Value Until Time 6

Schedule:Day:Interval,
    Always On_Day Schedule,    !- Name
    Fractional,               !- Schedule Type Limits Name
    No,                       !- Interpolate to Timestep
    24:00,                    !- Time 1
    1;                        !- Value Until Time 1

Schedule:Day:Interval,
    OfficeMedium HTGSETP_SCH_YES_OPTIMUM_Default,    !- Name
    Temperature,              !- Schedule Type Limits Name
    No,                       !- Interpolate to Timestep
    24:00,                    !- Time 1
    15.6;                     !- Value Until Time 1

Schedule:Day:Interval,
    {e92d0649-7140-44f5-8734-7ab63f035c7d},    !- Name
    Temperature,              !- Schedule Type Limits Name
    No,                       !- Interpolate to Timestep
    05:00,                    !- Time 1
    15.6,                     !- Value Until Time 1
    06:00,                    !- Time 2
    17.8,                     !- Value Until Time 2
    07:00,                    !- Time 3
    20,                       !- Value Until Time 3
    22:00,                    !- Time 4
    21,                       !- Value Until Time 4
    24:00,                    !- Time 5
    15.6;                     !- Value Until Time 5

Schedule:Day:Interval,
    {bcc13e86-09c7-4935-a179-9004d4300a09},    !- Name
    Temperature,              !- Schedule Type Limits Name
    No,                       !- Interpolate to Timestep
    05:00,                    !- Time 1
    15.6,                     !- Value Until Time 1
    06:00,                    !- Time 2
    17.8,                     !- Value Until Time 2
    07:00,                    !- Time 3
    20,                       !- Value Until Time 3
    17:00,                    !- Time 4
    21,                       !- Value Until Time 4
    24:00,                    !- Time 5
    15.6;                     !- Value Until Time 5

Schedule:Day:Interval,
    {d11b9681-0402-475f-8a1c-0b8cc2305f58},    !- Name
    Temperature,              !- Schedule Type Limits Name
    No,                       !- Interpolate to Timestep
    24:00,                    !- Time 1
    15.6;                     !- Value Until Time 1

Schedule:Day:Interval,
    {240e009c-43f9-4d47-8961-d8a73ac7287d},    !- Name
    Temperature,              !- Schedule Type Limits Name
    No,                       !- Interpolate to Timestep
    05:00,                    !- Time 1
    15.6,                     !- Value Until Time 1
    06:00,                    !- Time 2
    17.6,                     !- Value Until Time 2
    07:00,                    !- Time 3
    19.6,                     !- Value Until Time 3
    22:00,                    !- Time 4
    21,                       !- Value Until Time 4
    24:00,                    !- Time 5
    15.6;                     !- Value Until Time 5

Schedule:Day:Interval,
    {1eb1e147-ae02-40e8-bcac-d442f37c0191},    !- Name
    Temperature,              !- Schedule Type Limits Name
    No,                       !- Interpolate to Timestep
    24:00,                    !- Time 1
    15.6;                     !- Value Until Time 1

Schedule:Day:Interval,
    OfficeMedium CLGSETP_SCH_YES_OPTIMUM_Default,    !- Name
    Temperature,              !- Schedule Type Limits Name
    No,                       !- Interpolate to Timestep
    24:00,                    !- Time 1
    26.7;                     !- Value Until Time 1

Schedule:Day:Interval,
    {aea035ed-701d-4a5d-af51-3b4a013f441f},    !- Name
    Temperature,              !- Schedule Type Limits Name
    No,                       !- Interpolate to Timestep
    05:00,                    !- Time 1
    26.7,                     !- Value Until Time 1
    06:00,                    !- Time 2
    25.6,                     !- Value Until Time 2
    07:00,                    !- Time 3
    25,                       !- Value Until Time 3
    22:00,                    !- Time 4
    24,                       !- Value Until Time 4
    24:00,                    !- Time 5
    26.7;                     !- Value Until Time 5

Schedule:Day:Interval,
    {b1652cce-239e-4ccc-b763-ce0db0b882d7},    !- Name
    Temperature,              !- Schedule Type Limits Name
    No,                       !- Interpolate to Timestep
    05:00,                    !- Time 1
    26.7,                     !- Value Until Time 1
    06:00,                    !- Time 2
    25.7,                     !- Value Until Time 2
    07:00,                    !- Time 3
    25,                       !- Value Until Time 3
    17:00,                    !- Time 4
    24,                       !- Value Until Time 4
    24:00,                    !- Time 5
    26.7;                     !- Value Until Time 5

Schedule:Day:Interval,
    {41190160-9190-4e16-8422-50072377f8cf},    !- Name
    Temperature,              !- Schedule Type Limits Name
    No,                       !- Interpolate to Timestep
    05:00,                    !- Time 1
    26.7,                     !- Value Until Time 1
    06:00,                    !- Time 2
    25.7,                     !- Value Until Time 2
    07:00,                    !- Time 3
    25,                       !- Value Until Time 3
    22:00,                    !- Time 4
    24,                       !- Value Until Time 4
    24:00,                    !- Time 5
    26.7;                     !- Value Until Time 5

Schedule:Day:Interval,
    {eae660b2-143a-4734-bd33-600b1d31e829},    !- Name
    Temperature,              !- Schedule Type Limits Name
    No,                       !- Interpolate to Timestep
    24:00,                    !- Time 1
    26.7;                     !- Value Until Time 1

Schedule:Day:Interval,
    {524ea852-10ed-4f22-8e61-77a7f1151075},    !- Name
    Temperature,              !- Schedule Type Limits Name
    No,                       !- Interpolate to Timestep
    24:00,                    !- Time 1
    26.7;                     !- Value Until Time 1

Schedule:Day:Interval,
    OfficeMedium EQUIP_SCH_SmrDsn,    !- Name
    Fractional,               !- Schedule Type Limits Name
    No,                       !- Interpolate to Timestep
    24:00,                    !- Time 1
    1;                        !- Value Until Time 1

Schedule:Day:Interval,
    OfficeMedium EQUIP_SCH_Wkdy,    !- Name
    Fractional,               !- Schedule Type Limits Name
    No,                       !- Interpolate to Timestep
    06:00,                    !- Time 1
    0.3076738408,             !- Value Until Time 1
    08:00,                    !- Time 2
    0.381234796,              !- Value Until Time 2
    12:00,                    !- Time 3
    0.857778291,              !- Value Until Time 3
    13:00,                    !- Time 4
    0.762469592,              !- Value Until Time 4
    17:00,                    !- Time 5
    0.857778291,              !- Value Until Time 5
    18:00,                    !- Time 6
    0.476543495,              !- Value Until Time 6
    24:00,                    !- Time 7
    0.381234796;              !- Value Until Time 7

Schedule:Day:Interval,
    OfficeMedium EQUIP_SCH_WntrDsn,    !- Name
    Fractional,               !- Schedule Type Limits Name
    No,                       !- Interpolate to Timestep
    24:00,                    !- Time 1
    0;                        !- Value Until Time 1

Schedule:Day:Interval,
    OfficeMedium LIGHT_SCH_Sat,    !- Name
    Fractional,               !- Schedule Type Limits Name
    No,                       !- Interpolate to Timestep
    06:00,                    !- Time 1
    0.05,                     !- Value Until Time 1
    08:00,                    !- Time 2
    0.08623256,               !- Value Until Time 2
    12:00,                    !- Time 3
    0.25869768,               !- Value Until Time 3
    17:00,                    !- Time 4
    0.12934884,               !- Value Until Time 4
    19:00,                    !- Time 5
    0.04311628,               !- Value Until Time 5
    24:00,                    !- Time 6
    0.05;                     !- Value Until Time 6

Schedule:Day:Interval,
    OfficeMedium LIGHT_SCH_SmrDsn,    !- Name
    Fractional,               !- Schedule Type Limits Name
    No,                       !- Interpolate to Timestep
    24:00,                    !- Time 1
    1;                        !- Value Until Time 1

Schedule:Day:Interval,
    OfficeMedium LIGHT_SCH_Wkdy,    !- Name
    Fractional,               !- Schedule Type Limits Name
    No,                       !- Interpolate to Timestep
    05:00,                    !- Time 1
    0.05,                     !- Value Until Time 1
    06:00,                    !- Time 2
    0.1,                      !- Value Until Time 2
    07:00,                    !- Time 3
    0.08623256,               !- Value Until Time 3
    08:00,                    !- Time 4
    0.25869768,               !- Value Until Time 4
    17:00,                    !- Time 5
    0.77609304,               !- Value Until Time 5
    18:00,                    !- Time 6
    0.4311628,                !- Value Until Time 6
    20:00,                    !- Time 7
    0.25869768,               !- Value Until Time 7
    22:00,                    !- Time 8
    0.17246512,               !- Value Until Time 8
    23:00,                    !- Time 9
    0.08623256,               !- Value Until Time 9
    24:00,                    !- Time 10
    0.04311628;               !- Value Until Time 10

Schedule:Day:Interval,
    OfficeMedium LIGHT_SCH_WntrDsn,    !- Name
    Fractional,               !- Schedule Type Limits Name
    No,                       !- Interpolate to Timestep
    24:00,                    !- Time 1
    0;                        !- Value Until Time 1

Schedule:Day:Interval,
    OfficeMedium OCC_SCH_SmrDsn,    !- Name
    Fractional,               !- Schedule Type Limits Name
    No,                       !- Interpolate to Timestep